&aerosol_convproc_opts
 convproc_do_evaprain_atonce		= .true.
 convproc_pom_spechygro		= 0.2D0
 convproc_wup_max		= 4.0D0
/
&aerosol_nl
 aer_drydep_list		= 'bc_a1', 'bc_a4', 'dst_a1', 'dst_a2', 'dst_a3', 'ncl_a1', 'ncl_a2', 'ncl_a3', 'num_a1', 'num_a2', 'num_a3',
         'num_a4', 'pom_a1', 'pom_a4', 'so4_a1', 'so4_a2', 'so4_a3', 'soa_a1', 'soa_a2'
 aer_wetdep_list		= 'bc_a1', 'bc_a4', 'dst_a1', 'dst_a2', 'dst_a3', 'ncl_a1', 'ncl_a2', 'ncl_a3', 'num_a1', 'num_a2', 'num_a3',
         'num_a4', 'pom_a1', 'pom_a4', 'so4_a1', 'so4_a2', 'so4_a3', 'soa_a1', 'soa_a2'
 modal_accum_coarse_exch		= .true.
 seasalt_emis_scale		= 1.00D0
 sol_factb_interstitial		= 0.1D0
 sol_facti_cloud_borne		= 1.0D0
 sol_factic_interstitial		= 0.4D0
/
&air_composition_nl
 dry_air_species		= ''
 water_species_in_air		= 'Q','CLDLIQ','CLDICE','RAINQM','SNOWQM'
/
&blj_nl
 do_beljaars		=  .true.
/
&cam_history_nl
 inithist		= 'ENDOFRUN'
 mfilt		= 1,1,1,1,1,1
 ndens		= 1,1,1,1,1,1
 nhtfrq		= 9,9,9,9,9,9
/
&cam_initfiles_nl
 ncdata		= '/glade/p/cesmdata/cseg/inputdata/atm/cam/inic/fv/aqua_0006-01-01_0.9x1.25_L32_c161020.nc'
 use_topo_file		= .false.
/
&check_energy_nl
 print_energy_errors		= .false.
/
&chem_inparm
 chem_use_chemtrop		= .true.
 depvel_lnd_file		= '/glade/p/cesmdata/cseg/inputdata/atm/cam/chem/trop_mozart/dvel/regrid_vegetation_all_zero_aquaplanet_1deg_regularGrid_c20170421.nc'
 exo_coldens_file		= '/glade/p/cesmdata/cseg/inputdata/atm/cam/chem/trop_mozart/phot/exo_coldens.nc'
 ext_frc_cycle_yr		= 2000
 ext_frc_specifier		= ""
 ext_frc_type		= 'CYCLICAL'
 fstrat_list		= ' '
 rsf_file		= '/glade/p/cesmdata/cseg/inputdata/atm/waccm/phot/RSF_GT200nm_v3.0_c080811.nc'
 srf_emis_cycle_yr		= 2000
 srf_emis_specifier		= ""
 srf_emis_type		= 'CYCLICAL'
 tracer_cnst_cycle_yr		= 2000
 tracer_cnst_datapath		= '/glade/p/cesmdata/cseg/inputdata/atm/cam/chem/trop_mozart_aero/oxid'
 tracer_cnst_file		= 'oxid_1.9x2.5_L26_1850-2005_c091123.nc'
 tracer_cnst_specifier		= ""
 tracer_cnst_type		= 'CYCLICAL'
 xactive_prates		= .false.
 xs_long_file		= '/glade/p/cesmdata/cseg/inputdata/atm/waccm/phot/temp_prs_GT200nm_JPL10_c140624.nc'
/
&chem_surfvals_nl
 ch4vmr		= 1.650e-6
 co2vmr		= 348.0e-6
 f11vmr		= 653.45e-12
 f12vmr		= 535.0e-12
 flbc_list		= ' '
 n2ovmr		= 0.306e-6
/
&cldfrc2m_nl
 cldfrc2m_do_subgrid_growth		= .true.
 cldfrc2m_rhmaxi		=   1.0D0
 cldfrc2m_rhmaxis		=   1.0D0
 cldfrc2m_rhmini		=   0.80D0
 cldfrc2m_rhminis		=   1.0D0
/
&cldfrc_nl
 cldfrc_dp1		=  0.10D0
 cldfrc_dp2		=  500.0D0
 cldfrc_freeze_dry		= .true.
 cldfrc_ice		= .true.
 cldfrc_icecrit		=  0.93D0
 cldfrc_iceopt		=  5
 cldfrc_premib		=  700.0D2
 cldfrc_premit		=  75000.0D0
 cldfrc_rhminh		=  0.800D0
 cldfrc_rhminl		=  0.950D0
 cldfrc_rhminl_adj_land		=  0.000D0
 cldfrc_sh1		=  0.04D0
 cldfrc_sh2		=  500.0D0
/
&clubb_his_nl
 clubb_history		=  .false.
 clubb_rad_history		=  .false.
/
&clubb_mf_nl
 clubb_mf_ent0		=  0.22
 clubb_mf_l0		=  50.0
 clubb_mf_nup		=  10
 do_clubb_mf		=  .false.
 do_clubb_mf_diag		=  .false.
/
&clubb_params_nl
 clubb_beta		=  2.4
 clubb_c1		=  1.0
 clubb_c11		=  0.7D0
 clubb_c11b		=  0.35D0
 clubb_c14		=  2.2D0
 clubb_c1b		=  1.0
 clubb_c2rt		=  1.0
 clubb_c2rtthl		=  1.3
 clubb_c2thl		=  1.0
 clubb_c4		=  5.2
 clubb_c7		=  0.5
 clubb_c7b		=  0.5
 clubb_c8		=  4.2
 clubb_c8b		=  0.0
 clubb_c_k10		=  0.5
 clubb_c_k10h		=  0.3
 clubb_c_k9		=  0.25
 clubb_c_wp2_splat		=  0.0
 clubb_do_liqsupersat		=  .false.
 clubb_gamma_coef		=  0.308
 clubb_gamma_coefb		=  0.32
 clubb_l_brunt_vaisala_freq_moist		=  .false.
 clubb_l_call_pdf_closure_twice		=  .true.
 clubb_l_damp_wp2_using_em		=  .false.
 clubb_l_damp_wp3_skw_squared		=  .false.
 clubb_l_diag_lscale_from_tau		=  .false.
 clubb_l_lscale_plume_centered		=  .false.
 clubb_l_min_wp2_from_corr_wx		=  .false.
 clubb_l_min_xp2_from_corr_wx		=  .false.
 clubb_l_predict_upwp_vpwp		=  .false.
 clubb_l_rcm_supersat_adj		=  .false.
 clubb_l_stability_correct_tau_zm		=  .true.
 clubb_l_trapezoidal_rule_zm		=  .true.
 clubb_l_trapezoidal_rule_zt		=  .true.
 clubb_l_upwind_xpyp_ta		=  .true.
 clubb_l_use_c11_richardson		=  .false.
 clubb_l_use_c7_richardson		=  .false.
 clubb_l_use_cloud_cover		=  .true.
 clubb_l_use_ice_latent		=  .false.
 clubb_l_use_thvm_in_bv_freq		=  .false.
 clubb_l_vert_avg_closure		=  .true.
 clubb_lambda0_stability_coef		=  0.04
 clubb_lmin_coef		=  0.1
 clubb_mult_coef		=  1.0D0
 clubb_nu9		=  20.0
 clubb_skw_denom_coef		=  0.0
 clubb_skw_max_mag		=  4.5
 clubb_up2_vp2_factor		=  2.0
/
&clubbpbl_diff_nl
 clubb_cloudtop_cooling		=  .false.
 clubb_do_icesuper		=  .false.
 clubb_expldiff		=  .true.
 clubb_rainevap_turb		=  .false.
 clubb_rnevap_effic		=  1.0D0
 clubb_timestep		=  300.0D0
/
&conv_water_nl
 conv_water_frac_limit		=  0.01d0
 conv_water_in_rad		=  1
/
&dust_nl
 dust_emis_fact		= 0.70D0
 soil_erod_file		= '/glade/p/cesmdata/cseg/inputdata/atm/cam/dst/dst_source2x2tunedcam6-2x2-04062017.nc'
/
&dyn_fv_inparm
 fv_am_correction		=  .false.
 fv_am_diag		=  .false.
 fv_am_fix_lbl		=  .false.
 fv_am_fixer		=  .false.
 fv_del2coef		= 3.e+5
 fv_div24del2flag		=  4
 fv_fft_flt		= 1
 fv_filtcw		= 0
 fv_nspltvrm		= 2
/
&gw_drag_nl
 fcrit2		= 1.0
 gw_apply_tndmax		= .true.
 gw_dc		= 0.D0
 gw_dc_long		= 0.D0
 gw_limit_tau_without_eff		= .false.
 gw_lndscl_sgh		= .true.
 gw_oro_south_fac		= 1.d0
 gw_prndl		= 0.25d0
 pgwv		= 0
 pgwv_long		= 0
 tau_0_ubc		= .false.
 use_gw_rdg_beta		= .false.
 use_gw_rdg_gamma		= .false.
/
&gw_rdg_nl
 gw_rdg_do_divstream		= .true.
/
&micro_mg_nl
 micro_do_massless_droplet_destroyer		=   .false.
 micro_do_sb_physics		= .false.
 micro_mg_adjust_cpt		= .false.
 micro_mg_berg_eff_factor		=   1.0D0
 micro_mg_dcs		=                                  500.D-6
 micro_mg_do_graupel		=  .false.
 micro_mg_do_hail		=  .false.
 micro_mg_nccons		= .true.
 micro_mg_nicons		= .true.
 micro_mg_num_steps		=                                  1
 micro_mg_precip_frac_method		= 'in_cloud'
 micro_mg_sub_version		=                                  0
 micro_mg_version		=                                  2
/
&modal_aer_opt_nl
 water_refindex_file		= 'mam_data/water_refindex_rrtmg_c080910.nc'
/
&nucleate_ice_nl
 nucleate_ice_incloud		= .false.
 nucleate_ice_strat		= 1.0D0
 nucleate_ice_subgrid		= 1.2D0
 nucleate_ice_subgrid_strat		= 1.2D0
 nucleate_ice_use_troplev		= .true.
 use_preexisting_ice		= .true.
/
&phys_ctl_nl
 atm_dep_flux		= .false.
 cam_chempkg		= 'trop_mam4'
 cam_physpkg		= 'cam6'
 cam_snapshot_after_num		=    -1
 cam_snapshot_before_num		=   -1
 cld_macmic_num_steps		=  3
 convproc_do_aer		= .true.
 deep_scheme		= 'ZM'
 do_clubb_sgs		=  .true.
 eddy_scheme		= 'CLUBB_SGS'
 history_aero_optics		=           .false.
 history_aerosol		=               .false.
 history_amwg		=                  .true.
 history_budget		=                .false.
 history_chemistry		=             .true.
 history_chemspecies_srf		=       .true.
 history_clubb		=                 .true.
 history_dust		=                  .false.
 history_eddy		=                  .false.
 history_vdiag		=                 .false.
 history_waccm		=                 .false.
 history_waccmx		=                .false.
 macrop_scheme		= 'CLUBB_SGS'
 microp_scheme		= 'MG'
 radiation_scheme		= 'rrtmg'
 shallow_scheme		= 'CLUBB_SGS'
 srf_flux_avg		= 0
 state_debug_checks		= .true.
 use_gw_convect_dp		= .false.
 use_gw_convect_sh		= .false.
 use_gw_front		= .false.
 use_gw_front_igw		= .false.
 use_gw_oro		= .false.
 use_hetfrz_classnuc		= .true.
 use_simple_phys		= .false.
 use_subcol_microp		= .false.
 waccmx_opt		= 'off'
/
&physconst_nl
 cpwv		= 1.846e3
 gravit		= 9.79764
 mwdry		= 28.96623324623746
 mwh2o		= 18.01618112892741
 rearth		= 6.37100e6
 sday		= 86164.10063718943
/
&prescribed_ozone_nl
 prescribed_ozone_cycle_yr		= 1990
 prescribed_ozone_datapath		= '/glade/p/cesmdata/cseg/inputdata/atm/cam/ozone'
 prescribed_ozone_file		= 'apeozone_cam3_5_54.nc'
 prescribed_ozone_name		= 'OZONE'
 prescribed_ozone_type		= 'CYCLICAL'
/
&qneg_nl
 print_qneg_warn		= 'summary'
/
&rad_cnst_nl
 icecldoptics		= 'mitchell'
 iceopticsfile		= 'mam_data/iceoptics_c080917.nc'
 liqcldoptics		= 'gammadist'
 liqopticsfile		= 'mam_data/F_nwvl200_mu20_lam50_res64_t298_c080428.nc'
 mode_defs		=
       'mam4_mode1:accum:=', 'A:num_a1:N:num_c1:num_mr:+',
         'A:so4_a1:N:so4_c1:sulfate:mam_data/sulfate_rrtmg_c080918.nc:+',
         'A:pom_a1:N:pom_c1:p-organic:mam_data/ocpho_rrtmg_c130709.nc:+',
         'A:soa_a1:N:soa_c1:s-organic:mam_data/ocphi_rrtmg_c100508.nc:+',
         'A:bc_a1:N:bc_c1:black-c:mam_data/bcpho_rrtmg_c100508.nc:+',
         'A:dst_a1:N:dst_c1:dust:mam_data/dust_aeronet_rrtmg_c141106.nc:+',
         'A:ncl_a1:N:ncl_c1:seasalt:mam_data/ssam_rrtmg_c100508.nc',
       'mam4_mode2:aitken:=', 'A:num_a2:N:num_c2:num_mr:+',
         'A:so4_a2:N:so4_c2:sulfate:mam_data/sulfate_rrtmg_c080918.nc:+',
         'A:soa_a2:N:soa_c2:s-organic:mam_data/ocphi_rrtmg_c100508.nc:+',
         'A:ncl_a2:N:ncl_c2:seasalt:mam_data/ssam_rrtmg_c100508.nc:+',
         'A:dst_a2:N:dst_c2:dust:mam_data/dust_aeronet_rrtmg_c141106.nc',
       'mam4_mode3:coarse:=', 'A:num_a3:N:num_c3:num_mr:+',
         'A:dst_a3:N:dst_c3:dust:mam_data/dust_aeronet_rrtmg_c141106.nc:+',
         'A:ncl_a3:N:ncl_c3:seasalt:mam_data/ssam_rrtmg_c100508.nc:+',
         'A:so4_a3:N:so4_c3:sulfate:mam_data/sulfate_rrtmg_c080918.nc',
       'mam4_mode4:primary_carbon:=',
         'A:num_a4:N:num_c4:num_mr:+', 'A:pom_a4:N:pom_c4:p-organic:mam_data/ocpho_rrtmg_c130709.nc:+',
         'A:bc_a4:N:bc_c4:black-c:mam_data/bcpho_rrtmg_c100508.nc'
 rad_climate		= 'A:Q:H2O', 'N:O2:O2',
         'N:CO2:CO2', 'N:ozone:O3',
         'N:N2O:N2O', 'N:CH4:CH4',
         'N:CFC11:CFC11', 'N:CFC12:CFC12',
         'M:mam4_mode1:mam_data/mam4_mode1_rrtmg_aeronetdust_sig1.6_dgnh.48_c140304.nc',
         'M:mam4_mode2:mam_data/mam4_mode2_rrtmg_aitkendust_c141106.nc',
         'M:mam4_mode3:mam_data/mam4_mode3_rrtmg_aeronetdust_sig1.2_dgnl.40_c150219.nc',
         'M:mam4_mode4:mam_data/mam4_mode4_rrtmg_c130628.nc'
/
&radiation_nl
 graupel_in_rad		=  .false.
/
&ref_pres_nl
 clim_modal_aero_top_press		=  1.D-4
 do_molec_press		=  0.1D0
 molec_diff_bot_press		=  50.D0
 trop_cloud_top_press		=       1.D2
/
&solar_data_opts
 solar_htng_spctrl_scl		= .true.
 solar_irrad_data_file		= '/glade/p/cesmdata/cseg/inputdata/atm/cam/solar/ape_solar_ave_tsi_1365.nc'
/
&spmd_fv_inparm
 npr_yz		= 60,6,6,60
/
&tms_nl
 do_tms		=  .false.
/
&tropopause_nl
 tropopause_climo_file		= '/glade/p/cesmdata/cseg/inputdata/atm/cam/chem/trop_mozart/ub/clim_p_trop.nc'
/
&vert_diff_nl
 diff_cnsrv_mass_check		=  .false.
 do_iss		=  .true.
/
&wetdep_inparm
 gas_wetdep_list		= 'DMS','H2O2','H2SO4','SO2'
 gas_wetdep_method		= 'NEU'
/
&zmconv_nl
 zmconv_c0_lnd		=  0.0075D0
 zmconv_c0_ocn		=  0.0300D0
 zmconv_ke		=  5.0E-6
 zmconv_ke_lnd		=  1.0E-5
 zmconv_microp		=  .false.
 zmconv_momcd		=  0.7000D0
 zmconv_momcu		=  0.7000D0
 zmconv_num_cin		=  1
 zmconv_org		=  .false.
/
